38
2 DMPE Conformation 1 from JCTC SI
Rh 0.00000 0.00000 0.00000
O 0.00000 0.00000 2.22032
C 1.13573 0.00000 2.73155
N 2.26456 0.08587 2.01007
C 2.20809 0.35129 0.59354
C 1.65256 1.59139 0.16773
C 3.05144 -0.43777 -0.24244
N 3.72132 -1.09038 -0.93999
H 1.49298 2.35017 0.92784
H 1.92587 1.97061 -0.80982
H 3.16098 0.08597 2.48467
H 1.26179 -0.07714 3.81727
P -0.17886 -0.14608 -2.27318
P -0.32225 -2.35715 0.02580
C -0.16315 -1.95157 -2.72440
C -0.91612 -2.79143 -1.68134
H -1.55911 0.07916 -0.10535
H -0.02546 1.63096 -0.11072
C -1.71137 0.55282 -3.00084
C 1.17510 0.59370 -3.26917
C -1.61160 -2.95247 1.18676
C 1.12830 -3.44764 0.33207
H -1.76978 1.61777 -2.76255
H 1.03213 0.34320 -4.32509
H -1.76873 -4.03042 1.08621
H 1.47401 -3.30701 1.35994
H 1.94954 -3.18622 -0.34023
H 0.85968 -4.49928 0.19302
H -1.30099 -2.72702 2.21006
H -2.54817 -2.42415 0.99347
H -2.58621 0.06130 -2.56957
H -1.71467 0.42335 -4.08743
H 1.16371 1.68250 -3.16978
H 2.14317 0.20800 -2.94030
H -0.58594 -2.08194 -3.72682
H 0.89032 -2.25017 -2.77401
H -0.78937 -3.86210 -1.87320
H -1.99064 -2.57940 -1.71271