58
6 (R,R)-Me-BPE pro-R Conformation 1 from JCTC SI
 Rh 0.00000 0.00000 0.00000
 O 0.00000 0.00000 2.22878
 C 1.13165 0.00000 2.74941
 N 2.26573 -0.09252 2.04014
 C 2.23133 -0.34311 0.62019
 C 1.66131 -1.56854 0.17659
 C 3.17744 0.37662 -0.16526
 N 3.97118 0.94808 -0.80000
 H 1.47751 -2.33299 0.92563
 H 1.94292 -1.94178 -0.80153
 H 3.15825 -0.07341 2.52142
 H 1.24995 0.08340 3.83560
 P -0.27079 0.13017 -2.26789
 P -0.57132 2.33454 0.05460
 C -1.33233 1.62779 -2.58484
 C -0.94419 2.82541 -1.70831
 H -1.55389 -0.15550 -0.10716
 H -0.04333 -1.61026 -0.09826
 C -1.09207 -1.25492 -3.24338
 C 1.26384 0.22701 -3.34954
 C -2.08183 2.62582 1.13122
 C 0.39506 3.80893 0.73268
 C -0.39629 4.23747 1.98825
 H -0.15341 5.27145 2.25550
 H -0.10222 3.60954 2.83999
 C -1.89086 4.04979 1.69579
 H -2.50590 4.19325 2.59068
 H -2.22444 4.79132 0.95716
 C 0.86489 -0.55366 -4.62278
 H 1.76005 -0.85321 -5.17804
 H 0.28111 0.09693 -5.28797
 C 0.01963 -1.75931 -4.19254
 H 0.64978 -2.48869 -3.66553
 H -0.41971 -2.28165 -5.04842
 C -3.44116 2.36709 0.47684
 H -3.53455 1.33419 0.12727
 H -3.62547 3.04016 -0.36752
 H -4.24027 2.53672 1.20604
 C 1.89137 3.59506 0.96362
 H 2.07177 2.81630 1.71138
 H 2.34641 4.52024 1.33305
 H 2.41896 3.30854 0.05010
 C 1.83241 1.62552 -3.60944
 H 2.17449 2.10601 -2.68931
 H 1.10606 2.27580 -4.10850
 H 2.70297 1.54551 -4.26848
 C -1.78420 -2.35409 -2.43614
 H -2.56625 -1.95717 -1.78344
 H -1.07180 -2.89949 -1.80917
 H -2.24815 -3.07396 -3.11847
 H -1.94484 1.90640 1.94895
 H 2.02251 -0.35560 -2.81169
 H -1.84678 -0.73522 -3.85009
 H 0.26344 4.58685 -0.03244
 H -1.29002 1.88649 -3.64891
 H -2.35773 1.30760 -2.37047
 H -1.72449 3.59361 -1.73245
 H -0.02841 3.29072 -2.08742