58
7 (R,R)-Me-BPE pro-R Conformation 2 from JCTC SI
 Rh 0.00000 0.00000 0.00000
 O 0.00000 0.00000 2.22604
 C 1.13175 0.00000 2.74895
 N 2.26484 -0.11605 2.04339
 C 2.22776 -0.40978 0.63168
 C 1.60568 -1.62117 0.22210
 C 3.22318 0.22602 -0.16425
 N 4.05894 0.72216 -0.80805
 H 1.37268 -2.34944 0.99300
 H 1.88364 -2.04033 -0.73784
 H 3.15697 -0.10331 2.52561
 H 1.24834 0.10392 3.83342
 P -0.22938 0.13502 -2.28469
 P -0.58311 2.33179 0.05839
 C -0.68574 1.90263 -2.68821
 C -1.48679 2.56032 -1.55544
 H -1.55529 -0.10341 -0.09278
 H -0.09782 -1.60649 -0.11088
 C -1.47746 -0.98144 -3.15318
 C 1.22697 -0.34182 -3.38678
 C -1.73874 2.80087 1.45644
 C 0.53375 3.84926 0.24153
 C 0.05307 4.51842 1.55270
 H 0.31930 5.58065 1.55463
 H 0.57373 4.05942 2.40396
 C -1.45908 4.29979 1.69510
 H -1.82441 4.60701 2.68103
 H -2.00101 4.90139 0.95305
 C 0.58115 -1.13763 -4.54524
 H 1.32857 -1.77771 -5.02557
 H 0.22064 -0.43858 -5.31147
 C -0.59437 -1.94256 -3.98044
 H -0.22526 -2.75126 -3.33505
 H -1.18720 -2.41476 -4.77059
 C -3.21259 2.43394 1.26441
 H -3.34478 1.36284 1.08247
 H -3.66713 2.98733 0.43609
 H -3.77518 2.68331 2.17006
 C 2.03995 3.58724 0.19734
 H 2.35055 2.91110 1.00016
 H 2.58549 4.52805 0.32779
 H 2.36332 3.14615 -0.74882
 C 2.14136 0.80032 -3.84298
 H 2.60370 1.32581 -3.00341
 H 1.60671 1.52176 -4.46913
 H 2.95516 0.38801 -4.44860
 C -2.51726 -1.68425 -2.28053
 H -3.14768 -0.97631 -1.73535
 H -2.04432 -2.34272 -1.54629
 H -3.17129 -2.29498 -2.91188
 H -1.34863 2.23092 2.30930
 H 1.82049 -1.03725 -2.78084
 H -1.99459 -0.31102 -3.85358
 H 0.25912 4.49898 -0.60034
 H 0.25250 2.44324 -2.85018
 H -1.23799 1.92828 -3.63404
 H -2.46860 2.08819 -1.45100
 H -1.65216 3.62212 -1.76644