58
9 (R,R)-Me-BPE pro-S Conformation 2 from JCTC SI
 Rh 0.00000 0.00000 0.00000
 O 0.00000 0.00000 2.22603
 C 1.12315 0.00000 2.76184
 N 2.26401 0.08162 2.06314
 C 2.24704 0.30001 0.63601
 C 1.72305 1.53279 0.16117
 C 3.16891 -0.50440 -0.09493
 N 3.94868 -1.17568 -0.64288
 H 1.58070 2.32297 0.89225
 H 2.00632 1.86599 -0.83016
 H 3.15263 0.05185 2.55090
 H 1.22760 -0.07129 3.85044
 P -0.54851 -0.02336 -2.23547
 P -0.38617 -2.37438 -0.02840
 C -1.50181 -1.60645 -2.47921
 C -0.77330 -2.78168 -1.80875
 H -1.55139 0.15837 -0.02986
 H 0.03975 1.62374 -0.06002
 C -1.61145 1.39386 -2.84344
 C 0.66510 0.04184 -3.69161
 C -1.82054 -3.03941 1.00458
 C 0.86989 -3.63605 0.59259
 H -1.20994 2.26337 -2.30664
 H 1.44938 -3.08654 1.34596
 H -2.40471 -3.65832 0.30974
 H 0.36741 -0.82159 -4.30190
 C 0.01653 -4.69970 1.31847
 H -0.38022 -5.41391 0.58464
 H 0.63486 -5.27315 2.01764
 C -1.13776 -3.97948 2.02499
 H -0.75233 -3.38592 2.86491
 H -1.86858 -4.68083 2.44115
 C 0.27304 1.32968 -4.45517
 H 0.79866 2.18758 -4.01465
 H 0.59958 1.26078 -5.49810
 C -1.24281 1.53403 -4.33467
 H -1.55439 2.51237 -4.71541
 H -1.77748 0.77801 -4.92510
 C -3.10827 1.28630 -2.54501
 H -3.30316 1.16870 -1.47420
 H -3.61493 2.20024 -2.87133
 H -3.57051 0.44882 -3.07732
 C 2.15963 -0.06972 -3.39457
 H 2.42009 -0.98761 -2.86459
 H 2.71958 -0.06054 -4.33575
 H 2.52101 0.77471 -2.79971
 C -2.73967 -1.99419 1.64278
 H -3.26701 -1.39805 0.89243
 H -3.49633 -2.49549 2.25624
 H -2.17853 -1.30879 2.28337
 C 1.84023 -4.20034 -0.45066
 H 2.44844 -3.42044 -0.91660
 H 2.52867 -4.90011 0.03514
 H 1.31448 -4.75720 -1.23318
 H 0.17803 -2.97890 -2.31466
 H -1.36958 -3.69804 -1.87447
 H -2.49031 -1.45993 -2.03238
 H -1.64866 -1.79235 -3.54876